90
Generated by /home/mihali/bin/gt-log2xyz.pl.
 H 1.104937 5.401549 3.151081
 O 1.469997 4.709895 2.592764
 H 2.785028 5.637790 -0.151802
 H 2.137604 4.863333 1.043675
 H 5.329397 3.130941 0.420584
 O 2.513369 4.758542 0.132144
 H 0.801111 3.983306 2.551441
 H 3.823377 3.520046 0.302981
 O 4.447824 2.760837 0.311915
 H 0.793188 4.486087 -1.036518
 O -0.054776 4.536002 -1.505115
 H 3.820926 1.726447 -1.118875
 H 4.168889 0.962048 1.338085
 O 4.076585 0.025597 1.574060
 H -0.747194 4.457984 -0.820200
 O 3.170127 1.163448 -1.574973
 H -0.441368 3.580999 -2.887398
 H -0.698741 3.584233 -4.427404
 H 3.611988 0.304692 -1.745066
 O -0.664639 3.004153 -3.660136
 H 1.853722 1.194273 -2.977006
 H 4.658679 -1.426436 -3.051991
 H 3.282167 -0.279415 1.108294
 H 0.475863 1.595659 -3.595310
 O -1.996249 4.077369 0.497821
 O 4.367076 -1.331958 -2.139271
 H 1.702761 1.334515 -0.327258
 H -1.469259 3.582448 1.173456
 O -0.315351 2.728179 2.140174
 O 1.053171 0.832501 -3.393190
 H -2.462053 4.776978 0.966837
 H 0.133350 2.091498 1.546666
 O 0.966675 1.073295 0.260360
 H 5.547293 -1.757492 -0.508516
 H 3.749622 -2.084233 -1.968466
 O 5.725817 -1.974735 0.419952
 H -0.722300 2.220902 2.887872
 H -2.379298 2.001225 -3.480296
 H 0.399741 -0.166198 -2.288028
 H 5.322928 -1.234082 0.912027
 H -3.267025 2.842209 -0.269320
 O -3.281932 1.705995 -3.279400
Si 0.496782 -0.494451 -0.004845
 O 0.053028 -0.752366 -1.551667
 H -3.707027 2.122604 -1.587125
 O -3.866421 2.161344 -0.617028
 O 1.772934 -1.473957 0.418489
 O 2.690633 -3.278782 -1.268317
 O -1.515968 1.557532 4.233166
 H 2.051449 -2.158553 -0.257101
 H -1.204787 1.701825 5.131031
 H 4.799626 -3.516578 0.773023
 H -3.292431 0.732303 -3.329909
 H -1.897987 0.643072 4.228109
 H 3.165025 -3.848457 -0.615313
 H -0.894835 -2.163721 -2.133702
 O -0.777690 -0.775298 0.992556
 H -3.545315 0.585350 -0.135189
 O 4.124907 -4.230583 0.816932
 H 2.048046 -3.814712 -1.794900
 H -2.465827 -0.473059 0.367513
 H 2.154550 -2.193377 1.984025
 O -3.348571 -0.386455 -0.039884
 O 0.811796 -4.534042 -2.772927
 H -0.707235 -1.459363 1.689521
 H 3.631775 -4.063957 1.631790
 H -3.393048 -0.913552 -1.823554
 O -3.579923 -1.137571 -2.758011
 O -1.363478 -2.963323 -2.440542
 H -0.047856 -4.048973 -2.771480
 O 2.243647 -2.689147 2.828382
 H -2.189396 -2.615033 -2.816562
 H 0.597920 -5.470743 -2.778328
 H 2.816538 -2.149960 3.385864
 H -4.527825 -1.363370 -2.740829
 H 0.475652 -2.770772 3.134246
 H -0.813721 -3.589349 2.834221
 O -0.497381 -2.695507 3.004087
 H -4.503720 -1.447235 0.460986
 H -5.712813 -1.747155 3.951377
 O -5.218989 -2.100677 0.700762
 H -1.780629 -1.614727 4.034584
 O -6.299481 -1.702752 -1.957309
 H -6.975961 -1.028540 -2.072406
 H -6.162188 -1.782358 -0.995973
 O -2.419835 -0.965649 4.366278
 H -4.860987 -2.968438 0.481591
 O -4.899321 -1.947302 3.479911
 H -3.299655 -1.262859 4.059557
 H -5.128249 -1.965981 2.527345


